21

N          1.37129        0.30381        0.69426
C          2.17862       -0.06342       -0.46075
C          2.97755       -0.45294       -1.57855
O          2.32281       -0.70350       -2.62203
C          4.44037       -0.57952       -1.41041
C          5.17635       -1.46659       -2.20329
C          6.55264       -1.60431       -2.03414
C          7.21325       -0.84083       -1.07628
C          6.49859        0.05313       -0.28556
C          5.11980        0.17737       -0.44980
H          0.97125        1.23072        0.54862
H          1.95704        0.31366        1.52924
H          2.74803        0.83666       -0.35811
H          1.59599       -0.95344       -0.57608
H          3.83492       -0.33711       -2.20815
H          1.39710       -0.87610       -2.38926
H          4.69344       -2.02654       -2.92320
H          7.08107       -2.27123       -2.61809
H          8.23321       -0.93786       -0.95259
H          6.98831        0.62345        0.42150
H          4.59342        0.83627        0.14501
